Circuit: * Z:\home\tdarlic\Documents\Kicad\projects\led_round_lamp_220v\simulation\led_ring_220.asc

.OP point found by inspection.

Date: Tue Oct 13 00:27:39 2020
Total elapsed time: 0.399 seconds.

tnom = 27
temp = 27
method = modified trap
totiter = 19345
traniter = 19345
tranpoints = 6503
accept = 4400
rejected = 2103
matrix size = 46
fillins = 9
solver = Normal
Thread vector: 6.2/5.6[2] 4.6/3.5[2] 2.2/3.0[1] 1.5/3.4[1]  2592/500
Matrix Compiler1: 2.57 KB object code size  2.3/2.3/[2.3]
Matrix Compiler2: off  [1.7]/2.5/2.7

